Version 4
SHEET 1 880 680
WIRE 160 -272 0 -272
WIRE 464 -272 160 -272
WIRE 0 -256 0 -272
WIRE -48 -176 -240 -176
WIRE 160 -160 160 -272
WIRE 0 -144 0 -160
WIRE 112 -144 0 -144
WIRE -240 -128 -240 -176
WIRE 0 -80 0 -144
WIRE 160 -48 160 -64
WIRE -240 0 -240 -48
WIRE 0 48 0 0
WIRE 160 48 160 16
WIRE 464 160 464 -272
WIRE 160 272 160 128
WIRE 160 368 160 352
WIRE 464 368 464 240
WIRE 464 368 160 368
WIRE 160 400 160 368
FLAG 160 400 0
FLAG 0 48 0
FLAG -240 0 0
SYMBOL voltage 160 32 R0
WINDOW 123 0 0 Left 0
WINDOW 39 0 0 Left 0
SYMATTR InstName V1
SYMATTR Value 9.32
SYMBOL res 144 256 R0
SYMATTR InstName R1
SYMATTR Value 10
SYMBOL voltage 464 144 R0
WINDOW 123 0 0 Left 0
WINDOW 39 0 0 Left 0
SYMATTR InstName V2
SYMATTR Value 9
SYMBOL pmos 112 -64 M180
SYMATTR InstName M2
SYMATTR Value BSS84
SYMBOL nmos -48 -256 R0
SYMATTR InstName M3
SYMATTR Value Si7540DP_N
SYMBOL schottky 176 16 R180
WINDOW 0 24 64 Left 2
WINDOW 3 24 0 Left 2
SYMATTR InstName D1
SYMATTR Value BAT54
SYMBOL res -16 -96 R0
SYMATTR InstName R2
SYMATTR Value 1000k
SYMBOL voltage -240 -144 R0
WINDOW 3 24 96 Invisible 2
WINDOW 39 0 0 Left 0
SYMATTR InstName V3
SYMATTR Value PULSE(0 3.3 0 0 0 1 2 10)
SYMATTR Value2 AC 1
TEXT -274 424 Left 2 !.tran 0 10 0 0.5
