Version 4
SHEET 1 880 680
WIRE 496 -96 160 -96
WIRE 160 -48 160 -96
WIRE -240 16 -624 16
WIRE 160 48 160 16
WIRE 496 48 496 -96
WIRE -624 112 -624 16
WIRE -240 128 -240 16
WIRE 160 160 160 128
WIRE 160 160 -48 160
WIRE -48 176 -48 160
WIRE -240 256 -240 208
WIRE -96 256 -240 256
WIRE -240 288 -240 256
WIRE -48 368 -48 272
WIRE 160 368 -48 368
WIRE -384 384 -464 384
WIRE -288 384 -288 368
WIRE -288 384 -384 384
WIRE 496 448 496 128
WIRE 496 448 160 448
WIRE -624 464 -624 192
WIRE -464 464 -624 464
WIRE -384 464 -464 464
WIRE -464 512 -464 464
WIRE -384 512 -384 464
WIRE -240 512 -240 384
WIRE -240 512 -384 512
WIRE 160 576 160 448
FLAG 160 576 0
FLAG -464 512 0
SYMBOL voltage 160 32 R0
WINDOW 123 0 0 Left 0
WINDOW 39 0 0 Left 0
SYMATTR InstName V1
SYMATTR Value 9.32
SYMBOL res 144 352 R0
SYMATTR InstName R1
SYMATTR Value 20
SYMATTR SpiceLine tol=1 pwr=0.1
SYMBOL nmos -288 288 R0
SYMATTR InstName M3
SYMATTR Value Si7540DP_N
SYMBOL schottky 176 16 R180
WINDOW 0 24 64 Left 2
WINDOW 3 24 0 Left 2
SYMATTR InstName D1
SYMATTR Value BAT54
SYMBOL voltage -464 368 R0
WINDOW 3 24 96 Invisible 2
WINDOW 39 0 0 Left 0
SYMATTR Value PULSE(0 3.3 0 0 0 1 2 10)
SYMATTR InstName V3
SYMATTR Value2 AC 1
SYMBOL res -256 112 R0
SYMATTR InstName R2
SYMATTR Value 1Meg
SYMATTR SpiceLine tol=1 pwr=0.1
SYMBOL res -400 368 R0
SYMATTR InstName R3
SYMATTR Value 20
SYMATTR SpiceLine tol=1 pwr=0.1
SYMBOL nmos -96 176 R0
SYMATTR InstName M1
SYMATTR Value Si7540DP_N
SYMBOL voltage -624 96 R0
WINDOW 3 24 96 Invisible 2
WINDOW 39 0 0 Left 0
SYMATTR Value 9
SYMATTR InstName V2
SYMBOL res 480 32 R0
SYMATTR InstName R4
SYMATTR Value 10K
SYMATTR SpiceLine tol=1 pwr=0.1
TEXT 488 528 Left 2 !.tran 0 10 0 0.5
